
#####################
puts "Initialization"
#####################

model BasicBuilder -ndm 2 -ndf 3;

#####################
puts "Geometry Setup"
#####################


#####################
puts "Define Geometric Transformations"
#####################

geomTransf Linear 1
geomTransf PDelta 2

#####################
puts "Define Materials, Sections and Elements"
#####################


#####################
puts "Defining Nodes"
#####################

node 110001 0.000000 0.000000
node 110002 0.000000 180.000000
node 110003 0.000000 324.000000
node 110004 360.000000 0.000000
node 110005 360.000000 180.000000
node 110006 360.000000 324.000000
node 110007 540.000000 0.000000
node 110008 540.000000 180.000000
node 110009 540.000000 324.000000
node 210001 0.000000 0.000000
node 210002 0.000000 180.000000
node 210003 360.000000 0.000000
node 210004 360.000000 180.000000
node 210005 0.000000 180.000000
node 210006 0.000000 324.000000
node 210007 360.000000 180.000000
node 210008 360.000000 324.000000
node 210009 0.000000 180.000000
node 210010 360.000000 180.000000
node 210011 0.000000 324.000000
node 210012 360.000000 324.000000
mass 110002  0.692646 0.000001 0.000001
mass 110005  0.692646 0.000001 0.000001
mass 110003  0.679700 0.000001 0.000001
mass 110006  0.679700 0.000001 0.000001

#####################
puts "Writing Materials"
#####################

uniaxialMaterial Bilin 110001 42746000.000000 0.000961 0.000961 20350.000000 -20350.000000 1000.000000 1000.000000 1000.000000 1000.000000 1.000000 1.000000 1.000000 1.000000 0.025000 0.025000 0.300000 0.300000 0.400000 0.400000 1.000000 1.000000 1.000000 1.000000 
uniaxialMaterial Bilin 110002 42746000.000000 0.000961 0.000961 20350.000000 -20350.000000 1000.000000 1000.000000 1000.000000 1000.000000 1.000000 1.000000 1.000000 1.000000 0.025000 0.025000 0.300000 0.300000 0.400000 0.400000 1.000000 1.000000 1.000000 1.000000 
uniaxialMaterial Bilin 110003 53432500.000000 0.000768 0.000768 20350.000000 -20350.000000 1000.000000 1000.000000 1000.000000 1000.000000 1.000000 1.000000 1.000000 1.000000 0.025000 0.025000 0.300000 0.300000 0.400000 0.400000 1.000000 1.000000 1.000000 1.000000 
uniaxialMaterial Bilin 110004 53432500.000000 0.000768 0.000768 20350.000000 -20350.000000 1000.000000 1000.000000 1000.000000 1000.000000 1.000000 1.000000 1.000000 1.000000 0.025000 0.025000 0.300000 0.300000 0.400000 0.400000 1.000000 1.000000 1.000000 1.000000 
uniaxialMaterial Bilin 110005 19246333.333333 0.001441 0.001441 10938.000000 -10938.000000 1000.000000 1000.000000 1000.000000 1000.000000 1.000000 1.000000 1.000000 1.000000 0.020000 0.020000 0.160000 0.160000 0.400000 0.400000 1.000000 1.000000 1.000000 1.000000 
uniaxialMaterial Bilin 110006 19246333.333333 0.001441 0.001441 10938.000000 -10938.000000 1000.000000 1000.000000 1000.000000 1000.000000 1.000000 1.000000 1.000000 1.000000 0.020000 0.020000 0.160000 0.160000 0.400000 0.400000 1.000000 1.000000 1.000000 1.000000 
uniaxialMaterial Elastic 110007 29000.000000

#####################
puts "Writing Sections"
#####################


#####################
puts "Writing Elements"
#####################

element zeroLength 910001 110001 210001 -mat  110001 -dir  3 
element zeroLength 910002 210002 110002 -mat  110001 -dir  3 
element elasticBeamColumn 510001 210001 210002 38.500000 29000.000000 4422.000000 2 
element zeroLength 910003 110004 210003 -mat  110002 -dir  3 
element zeroLength 910004 210004 110005 -mat  110002 -dir  3 
element elasticBeamColumn 510002 210003 210004 38.500000 29000.000000 4422.000000 2 
element zeroLength 910005 110002 210005 -mat  110003 -dir  3 
element zeroLength 910006 210006 110003 -mat  110003 -dir  3 
element elasticBeamColumn 510003 210005 210006 38.500000 29000.000000 4422.000000 2 
element zeroLength 910007 110005 210007 -mat  110004 -dir  3 
element zeroLength 910008 210008 110006 -mat  110004 -dir  3 
element elasticBeamColumn 510004 210007 210008 38.500000 29000.000000 4422.000000 2 
element zeroLength 910009 110002 210009 -mat  110005 -dir  3 
element zeroLength 910010 110005 210010 -mat  110005 -dir  3 
element elasticBeamColumn 610001 210009 210010 30.000000 29000.000000 3982.000000 2 
element zeroLength 910011 110003 210011 -mat  110006 -dir  3 
element zeroLength 910012 110006 210012 -mat  110006 -dir  3 
element elasticBeamColumn 610002 210011 210012 30.000000 29000.000000 3982.000000 2 
element elasticBeamColumn 810001 110007 110008 1000000.000000 1000000.000000 100.000000 2 
element elasticBeamColumn 810002 110008 110009 1000000.000000 1000000.000000 100.000000 2 
element truss 810003 110005 110008 1000000.000000 110007
element truss 810004 110006 110009 1000000.000000 110007

#####################
puts "Writing Shells"
#####################


#####################
puts "Writing Constraints"
#####################

equalDOF 110001 210001  1 2
equalDOF 110002 210002  1 2
equalDOF 110004 210003  1 2
equalDOF 110005 210004  1 2
equalDOF 110002 210005  1 2
equalDOF 110003 210006  1 2
equalDOF 110005 210007  1 2
equalDOF 110006 210008  1 2
equalDOF 110002 210009  1 2
equalDOF 110005 210010  1 2
equalDOF 110003 210011  1 2
equalDOF 110006 210012  1 2
fix 110001  1 1 1
fix 110004  1 1 1
fix 110007  1 1 0

#####################
puts "Eigenvalue Analysis"
#####################

set pi [expr 2.0*asin(1.0)]; 
set nModes 1; 
set lambdaN [eigen -fullGenLapack 1]; 
set lambdaN1 [lindex $lambdaN [expr 0]]; 
set w1 [expr pow($lambdaN1,0.5)]; 
set T1 [expr 2.0*$pi/$w1]; 
puts "T1 = $T1 s" 


#####################
puts "Rayleigh Damping"
#####################

rayleigh 0.766242 0.000000 0.000000 0.000000

#####################
puts "Loads"
#####################

pattern Plain 100 Linear  { 

load 110008  0.000000 -535.000000 0.000000
load 110009  0.000000 -525.000000 0.000000
 }

#####################
puts "Time Series"
#####################

timeSeries Path 1 -dt 0.020000 -values { 4.622814 2.670959 0.726442 3.140578 5.562052 7.976189 5.004380 2.032571 -0.939238 2.700310 6.339859 9.979408 5.334581 0.689753 3.081876 1.621654 0.154094 3.257983 6.361873 9.465762 12.569651 -2.516865 -17.610720 -7.279098 3.052525 3.874358 12.129383 20.391746 28.646771 17.970272 7.301111 7.051626 6.794803 6.545318 -3.566171 -13.677659 -23.789148 -24.691697 

#####################
puts "Recorder Setup"
#####################

recorder Node -file Results/SteelMomentFrame-NodeD.dat  -time -node  110006 -dof  1 disp
recorder Node -file Results/SteelMomentFrame-NodeV.dat  -time -node  110006 -dof  1 vel
recorder Node -file Results/SteelMomentFrame-NodeA.dat -timeSeries 1 -time -node  110006 -dof  1 accel
recorder Node -file Results/SteelMomentFrame-NodeReact.dat  -time -node  110001 110004 110007 -dof  1 reaction

#####################
puts "Display Results"
#####################


#####################
puts "Gravity Analysis"
#####################

constraints Transformation
numberer RCM
system BandGeneral
test EnergyIncr 1.000000e-06 1000 0 2
algorithm KrylovNewton
integrator LoadControl 1.000000
analysis Static
set ok [analyze 1]
if {$ok == 0} {puts "Gravity Analysis Success" } else {puts "Gravity Analysis Failed"} 
loadConst -time 0.0

#####################
puts "Pushover Analysis"
#####################


#####################
puts "Time History Analysis"
#####################

constraints Plain
numberer RCM
system BandGeneral
test NormDispIncr 1.000000e-06 1000 0 2
algorithm KrylovNewton
integrator Newmark 0.500000 0.250000
analysis Transient
pattern UniformExcitation 400 1 -accel 1
set ok 0;
set Nsteps 2559;
set step 0;
while {$ok == 0 & $step < [expr $Nsteps +1]} {
set ok [analyze 1 0.020000]
puts "Running Time History Step: $step out of 2559"
set step [expr $step+1]
}

#####################
puts "Close File"
#####################

wipe;
puts "Models Run Complete";
